*SPEF "IEEE 1481-1998"
*DESIGN "user_project_wrapper"
*DATE "Fri Dec 18 09:23:21 2020"
*VENDOR "AUC CSCE Department"
*PROGRAM "SPEF Extractor"
*VERSION "1.0"
*DESIGN_FLOW "PIN_CAP NONE"
*DIVIDER /
*DELIMITER :
*BUS_DELIMITER []
*T_UNIT 1.00000 NS
*C_UNIT 1.00000 PF
*R_UNIT 1.00000 OHM
*L_UNIT 1.00000 HENRY


*NAME_MAP
*0 analog_io[0]
*1 analog_io[10]
*2 analog_io[11]
*3 analog_io[12]
*4 analog_io[13]
*5 analog_io[14]
*6 analog_io[15]
*7 analog_io[16]
*8 analog_io[17]
*9 analog_io[18]
*10 analog_io[19]
*11 analog_io[1]
*12 analog_io[20]
*13 analog_io[21]
*14 analog_io[22]
*15 analog_io[23]
*16 analog_io[24]
*17 analog_io[25]
*18 analog_io[26]
*19 analog_io[27]
*20 analog_io[28]
*21 analog_io[29]
*22 analog_io[2]
*23 analog_io[30]
*24 analog_io[3]
*25 analog_io[4]
*26 analog_io[5]
*27 analog_io[6]
*28 analog_io[7]
*29 analog_io[8]
*30 analog_io[9]
*31 io_in[0]
*32 io_in[10]
*33 io_in[11]
*34 io_in[12]
*35 io_in[13]
*36 io_in[14]
*37 io_in[15]
*38 io_in[16]
*39 io_in[17]
*40 io_in[18]
*41 io_in[19]
*42 io_in[1]
*43 io_in[20]
*44 io_in[21]
*45 io_in[22]
*46 io_in[23]
*47 io_in[24]
*48 io_in[25]
*49 io_in[26]
*50 io_in[27]
*51 io_in[28]
*52 io_in[29]
*53 io_in[2]
*54 io_in[30]
*55 io_in[31]
*56 io_in[32]
*57 io_in[33]
*58 io_in[34]
*59 io_in[35]
*60 io_in[36]
*61 io_in[37]
*62 io_in[3]
*63 io_in[4]
*64 io_in[5]
*65 io_in[6]
*66 io_in[7]
*67 io_in[8]
*68 io_in[9]
*69 io_oeb[0]
*70 io_oeb[10]
*71 io_oeb[11]
*72 io_oeb[12]
*73 io_oeb[13]
*74 io_oeb[14]
*75 io_oeb[15]
*76 io_oeb[16]
*77 io_oeb[17]
*78 io_oeb[18]
*79 io_oeb[19]
*80 io_oeb[1]
*81 io_oeb[20]
*82 io_oeb[21]
*83 io_oeb[22]
*84 io_oeb[23]
*85 io_oeb[24]
*86 io_oeb[25]
*87 io_oeb[26]
*88 io_oeb[27]
*89 io_oeb[28]
*90 io_oeb[29]
*91 io_oeb[2]
*92 io_oeb[30]
*93 io_oeb[31]
*94 io_oeb[32]
*95 io_oeb[33]
*96 io_oeb[34]
*97 io_oeb[35]
*98 io_oeb[36]
*99 io_oeb[37]
*100 io_oeb[3]
*101 io_oeb[4]
*102 io_oeb[5]
*103 io_oeb[6]
*104 io_oeb[7]
*105 io_oeb[8]
*106 io_oeb[9]
*107 io_out[0]
*108 io_out[10]
*109 io_out[11]
*110 io_out[12]
*111 io_out[13]
*112 io_out[14]
*113 io_out[15]
*114 io_out[16]
*115 io_out[17]
*116 io_out[18]
*117 io_out[19]
*118 io_out[1]
*119 io_out[20]
*120 io_out[21]
*121 io_out[22]
*122 io_out[23]
*123 io_out[24]
*124 io_out[25]
*125 io_out[26]
*126 io_out[27]
*127 io_out[28]
*128 io_out[29]
*129 io_out[2]
*130 io_out[30]
*131 io_out[31]
*132 io_out[32]
*133 io_out[33]
*134 io_out[34]
*135 io_out[35]
*136 io_out[36]
*137 io_out[37]
*138 io_out[3]
*139 io_out[4]
*140 io_out[5]
*141 io_out[6]
*142 io_out[7]
*143 io_out[8]
*144 io_out[9]
*145 la_data_in[0]
*146 la_data_in[100]
*147 la_data_in[101]
*148 la_data_in[102]
*149 la_data_in[103]
*150 la_data_in[104]
*151 la_data_in[105]
*152 la_data_in[106]
*153 la_data_in[107]
*154 la_data_in[108]
*155 la_data_in[109]
*156 la_data_in[10]
*157 la_data_in[110]
*158 la_data_in[111]
*159 la_data_in[112]
*160 la_data_in[113]
*161 la_data_in[114]
*162 la_data_in[115]
*163 la_data_in[116]
*164 la_data_in[117]
*165 la_data_in[118]
*166 la_data_in[119]
*167 la_data_in[11]
*168 la_data_in[120]
*169 la_data_in[121]
*170 la_data_in[122]
*171 la_data_in[123]
*172 la_data_in[124]
*173 la_data_in[125]
*174 la_data_in[126]
*175 la_data_in[127]
*176 la_data_in[12]
*177 la_data_in[13]
*178 la_data_in[14]
*179 la_data_in[15]
*180 la_data_in[16]
*181 la_data_in[17]
*182 la_data_in[18]
*183 la_data_in[19]
*184 la_data_in[1]
*185 la_data_in[20]
*186 la_data_in[21]
*187 la_data_in[22]
*188 la_data_in[23]
*189 la_data_in[24]
*190 la_data_in[25]
*191 la_data_in[26]
*192 la_data_in[27]
*193 la_data_in[28]
*194 la_data_in[29]
*195 la_data_in[2]
*196 la_data_in[30]
*197 la_data_in[31]
*198 la_data_in[32]
*199 la_data_in[33]
*200 la_data_in[34]
*201 la_data_in[35]
*202 la_data_in[36]
*203 la_data_in[37]
*204 la_data_in[38]
*205 la_data_in[39]
*206 la_data_in[3]
*207 la_data_in[40]
*208 la_data_in[41]
*209 la_data_in[42]
*210 la_data_in[43]
*211 la_data_in[44]
*212 la_data_in[45]
*213 la_data_in[46]
*214 la_data_in[47]
*215 la_data_in[48]
*216 la_data_in[49]
*217 la_data_in[4]
*218 la_data_in[50]
*219 la_data_in[51]
*220 la_data_in[52]
*221 la_data_in[53]
*222 la_data_in[54]
*223 la_data_in[55]
*224 la_data_in[56]
*225 la_data_in[57]
*226 la_data_in[58]
*227 la_data_in[59]
*228 la_data_in[5]
*229 la_data_in[60]
*230 la_data_in[61]
*231 la_data_in[62]
*232 la_data_in[63]
*233 la_data_in[64]
*234 la_data_in[65]
*235 la_data_in[66]
*236 la_data_in[67]
*237 la_data_in[68]
*238 la_data_in[69]
*239 la_data_in[6]
*240 la_data_in[70]
*241 la_data_in[71]
*242 la_data_in[72]
*243 la_data_in[73]
*244 la_data_in[74]
*245 la_data_in[75]
*246 la_data_in[76]
*247 la_data_in[77]
*248 la_data_in[78]
*249 la_data_in[79]
*250 la_data_in[7]
*251 la_data_in[80]
*252 la_data_in[81]
*253 la_data_in[82]
*254 la_data_in[83]
*255 la_data_in[84]
*256 la_data_in[85]
*257 la_data_in[86]
*258 la_data_in[87]
*259 la_data_in[88]
*260 la_data_in[89]
*261 la_data_in[8]
*262 la_data_in[90]
*263 la_data_in[91]
*264 la_data_in[92]
*265 la_data_in[93]
*266 la_data_in[94]
*267 la_data_in[95]
*268 la_data_in[96]
*269 la_data_in[97]
*270 la_data_in[98]
*271 la_data_in[99]
*272 la_data_in[9]
*273 la_data_out[0]
*274 la_data_out[100]
*275 la_data_out[101]
*276 la_data_out[102]
*277 la_data_out[103]
*278 la_data_out[104]
*279 la_data_out[105]
*280 la_data_out[106]
*281 la_data_out[107]
*282 la_data_out[108]
*283 la_data_out[109]
*284 la_data_out[10]
*285 la_data_out[110]
*286 la_data_out[111]
*287 la_data_out[112]
*288 la_data_out[113]
*289 la_data_out[114]
*290 la_data_out[115]
*291 la_data_out[116]
*292 la_data_out[117]
*293 la_data_out[118]
*294 la_data_out[119]
*295 la_data_out[11]
*296 la_data_out[120]
*297 la_data_out[121]
*298 la_data_out[122]
*299 la_data_out[123]
*300 la_data_out[124]
*301 la_data_out[125]
*302 la_data_out[126]
*303 la_data_out[127]
*304 la_data_out[12]
*305 la_data_out[13]
*306 la_data_out[14]
*307 la_data_out[15]
*308 la_data_out[16]
*309 la_data_out[17]
*310 la_data_out[18]
*311 la_data_out[19]
*312 la_data_out[1]
*313 la_data_out[20]
*314 la_data_out[21]
*315 la_data_out[22]
*316 la_data_out[23]
*317 la_data_out[24]
*318 la_data_out[25]
*319 la_data_out[26]
*320 la_data_out[27]
*321 la_data_out[28]
*322 la_data_out[29]
*323 la_data_out[2]
*324 la_data_out[30]
*325 la_data_out[31]
*326 la_data_out[32]
*327 la_data_out[33]
*328 la_data_out[34]
*329 la_data_out[35]
*330 la_data_out[36]
*331 la_data_out[37]
*332 la_data_out[38]
*333 la_data_out[39]
*334 la_data_out[3]
*335 la_data_out[40]
*336 la_data_out[41]
*337 la_data_out[42]
*338 la_data_out[43]
*339 la_data_out[44]
*340 la_data_out[45]
*341 la_data_out[46]
*342 la_data_out[47]
*343 la_data_out[48]
*344 la_data_out[49]
*345 la_data_out[4]
*346 la_data_out[50]
*347 la_data_out[51]
*348 la_data_out[52]
*349 la_data_out[53]
*350 la_data_out[54]
*351 la_data_out[55]
*352 la_data_out[56]
*353 la_data_out[57]
*354 la_data_out[58]
*355 la_data_out[59]
*356 la_data_out[5]
*357 la_data_out[60]
*358 la_data_out[61]
*359 la_data_out[62]
*360 la_data_out[63]
*361 la_data_out[64]
*362 la_data_out[65]
*363 la_data_out[66]
*364 la_data_out[67]
*365 la_data_out[68]
*366 la_data_out[69]
*367 la_data_out[6]
*368 la_data_out[70]
*369 la_data_out[71]
*370 la_data_out[72]
*371 la_data_out[73]
*372 la_data_out[74]
*373 la_data_out[75]
*374 la_data_out[76]
*375 la_data_out[77]
*376 la_data_out[78]
*377 la_data_out[79]
*378 la_data_out[7]
*379 la_data_out[80]
*380 la_data_out[81]
*381 la_data_out[82]
*382 la_data_out[83]
*383 la_data_out[84]
*384 la_data_out[85]
*385 la_data_out[86]
*386 la_data_out[87]
*387 la_data_out[88]
*388 la_data_out[89]
*389 la_data_out[8]
*390 la_data_out[90]
*391 la_data_out[91]
*392 la_data_out[92]
*393 la_data_out[93]
*394 la_data_out[94]
*395 la_data_out[95]
*396 la_data_out[96]
*397 la_data_out[97]
*398 la_data_out[98]
*399 la_data_out[99]
*400 la_data_out[9]
*401 la_oen[0]
*402 la_oen[100]
*403 la_oen[101]
*404 la_oen[102]
*405 la_oen[103]
*406 la_oen[104]
*407 la_oen[105]
*408 la_oen[106]
*409 la_oen[107]
*410 la_oen[108]
*411 la_oen[109]
*412 la_oen[10]
*413 la_oen[110]
*414 la_oen[111]
*415 la_oen[112]
*416 la_oen[113]
*417 la_oen[114]
*418 la_oen[115]
*419 la_oen[116]
*420 la_oen[117]
*421 la_oen[118]
*422 la_oen[119]
*423 la_oen[11]
*424 la_oen[120]
*425 la_oen[121]
*426 la_oen[122]
*427 la_oen[123]
*428 la_oen[124]
*429 la_oen[125]
*430 la_oen[126]
*431 la_oen[127]
*432 la_oen[12]
*433 la_oen[13]
*434 la_oen[14]
*435 la_oen[15]
*436 la_oen[16]
*437 la_oen[17]
*438 la_oen[18]
*439 la_oen[19]
*440 la_oen[1]
*441 la_oen[20]
*442 la_oen[21]
*443 la_oen[22]
*444 la_oen[23]
*445 la_oen[24]
*446 la_oen[25]
*447 la_oen[26]
*448 la_oen[27]
*449 la_oen[28]
*450 la_oen[29]
*451 la_oen[2]
*452 la_oen[30]
*453 la_oen[31]
*454 la_oen[32]
*455 la_oen[33]
*456 la_oen[34]
*457 la_oen[35]
*458 la_oen[36]
*459 la_oen[37]
*460 la_oen[38]
*461 la_oen[39]
*462 la_oen[3]
*463 la_oen[40]
*464 la_oen[41]
*465 la_oen[42]
*466 la_oen[43]
*467 la_oen[44]
*468 la_oen[45]
*469 la_oen[46]
*470 la_oen[47]
*471 la_oen[48]
*472 la_oen[49]
*473 la_oen[4]
*474 la_oen[50]
*475 la_oen[51]
*476 la_oen[52]
*477 la_oen[53]
*478 la_oen[54]
*479 la_oen[55]
*480 la_oen[56]
*481 la_oen[57]
*482 la_oen[58]
*483 la_oen[59]
*484 la_oen[5]
*485 la_oen[60]
*486 la_oen[61]
*487 la_oen[62]
*488 la_oen[63]
*489 la_oen[64]
*490 la_oen[65]
*491 la_oen[66]
*492 la_oen[67]
*493 la_oen[68]
*494 la_oen[69]
*495 la_oen[6]
*496 la_oen[70]
*497 la_oen[71]
*498 la_oen[72]
*499 la_oen[73]
*500 la_oen[74]
*501 la_oen[75]
*502 la_oen[76]
*503 la_oen[77]
*504 la_oen[78]
*505 la_oen[79]
*506 la_oen[7]
*507 la_oen[80]
*508 la_oen[81]
*509 la_oen[82]
*510 la_oen[83]
*511 la_oen[84]
*512 la_oen[85]
*513 la_oen[86]
*514 la_oen[87]
*515 la_oen[88]
*516 la_oen[89]
*517 la_oen[8]
*518 la_oen[90]
*519 la_oen[91]
*520 la_oen[92]
*521 la_oen[93]
*522 la_oen[94]
*523 la_oen[95]
*524 la_oen[96]
*525 la_oen[97]
*526 la_oen[98]
*527 la_oen[99]
*528 la_oen[9]
*529 user_clock2
*530 wb_clk_i
*531 wb_rst_i
*532 wbs_ack_o
*533 wbs_adr_i[0]
*534 wbs_adr_i[10]
*535 wbs_adr_i[11]
*536 wbs_adr_i[12]
*537 wbs_adr_i[13]
*538 wbs_adr_i[14]
*539 wbs_adr_i[15]
*540 wbs_adr_i[16]
*541 wbs_adr_i[17]
*542 wbs_adr_i[18]
*543 wbs_adr_i[19]
*544 wbs_adr_i[1]
*545 wbs_adr_i[20]
*546 wbs_adr_i[21]
*547 wbs_adr_i[22]
*548 wbs_adr_i[23]
*549 wbs_adr_i[24]
*550 wbs_adr_i[25]
*551 wbs_adr_i[26]
*552 wbs_adr_i[27]
*553 wbs_adr_i[28]
*554 wbs_adr_i[29]
*555 wbs_adr_i[2]
*556 wbs_adr_i[30]
*557 wbs_adr_i[31]
*558 wbs_adr_i[3]
*559 wbs_adr_i[4]
*560 wbs_adr_i[5]
*561 wbs_adr_i[6]
*562 wbs_adr_i[7]
*563 wbs_adr_i[8]
*564 wbs_adr_i[9]
*565 wbs_cyc_i
*566 wbs_dat_i[0]
*567 wbs_dat_i[10]
*568 wbs_dat_i[11]
*569 wbs_dat_i[12]
*570 wbs_dat_i[13]
*571 wbs_dat_i[14]
*572 wbs_dat_i[15]
*573 wbs_dat_i[16]
*574 wbs_dat_i[17]
*575 wbs_dat_i[18]
*576 wbs_dat_i[19]
*577 wbs_dat_i[1]
*578 wbs_dat_i[20]
*579 wbs_dat_i[21]
*580 wbs_dat_i[22]
*581 wbs_dat_i[23]
*582 wbs_dat_i[24]
*583 wbs_dat_i[25]
*584 wbs_dat_i[26]
*585 wbs_dat_i[27]
*586 wbs_dat_i[28]
*587 wbs_dat_i[29]
*588 wbs_dat_i[2]
*589 wbs_dat_i[30]
*590 wbs_dat_i[31]
*591 wbs_dat_i[3]
*592 wbs_dat_i[4]
*593 wbs_dat_i[5]
*594 wbs_dat_i[6]
*595 wbs_dat_i[7]
*596 wbs_dat_i[8]
*597 wbs_dat_i[9]
*598 wbs_dat_o[0]
*599 wbs_dat_o[10]
*600 wbs_dat_o[11]
*601 wbs_dat_o[12]
*602 wbs_dat_o[13]
*603 wbs_dat_o[14]
*604 wbs_dat_o[15]
*605 wbs_dat_o[16]
*606 wbs_dat_o[17]
*607 wbs_dat_o[18]
*608 wbs_dat_o[19]
*609 wbs_dat_o[1]
*610 wbs_dat_o[20]
*611 wbs_dat_o[21]
*612 wbs_dat_o[22]
*613 wbs_dat_o[23]
*614 wbs_dat_o[24]
*615 wbs_dat_o[25]
*616 wbs_dat_o[26]
*617 wbs_dat_o[27]
*618 wbs_dat_o[28]
*619 wbs_dat_o[29]
*620 wbs_dat_o[2]
*621 wbs_dat_o[30]
*622 wbs_dat_o[31]
*623 wbs_dat_o[3]
*624 wbs_dat_o[4]
*625 wbs_dat_o[5]
*626 wbs_dat_o[6]
*627 wbs_dat_o[7]
*628 wbs_dat_o[8]
*629 wbs_dat_o[9]
*630 wbs_sel_i[0]
*631 wbs_sel_i[1]
*632 wbs_sel_i[2]
*633 wbs_sel_i[3]
*634 wbs_stb_i
*635 wbs_we_i

*D_NET *0 0
*CONN
*P analog_io[0] O
*CAP
*RES
*END

*D_NET *1 0
*CONN
*P analog_io[10] O
*CAP
*RES
*END

*D_NET *2 0
*CONN
*P analog_io[11] O
*CAP
*RES
*END

*D_NET *3 0
*CONN
*P analog_io[12] O
*CAP
*RES
*END

*D_NET *4 0
*CONN
*P analog_io[13] O
*CAP
*RES
*END

*D_NET *5 0
*CONN
*P analog_io[14] O
*CAP
*RES
*END

*D_NET *6 0
*CONN
*P analog_io[15] O
*CAP
*RES
*END

*D_NET *7 0
*CONN
*P analog_io[16] O
*CAP
*RES
*END

*D_NET *8 0
*CONN
*P analog_io[17] O
*CAP
*RES
*END

*D_NET *9 0
*CONN
*P analog_io[18] O
*CAP
*RES
*END

*D_NET *10 0
*CONN
*P analog_io[19] O
*CAP
*RES
*END

*D_NET *11 0
*CONN
*P analog_io[1] O
*CAP
*RES
*END

*D_NET *12 0
*CONN
*P analog_io[20] O
*CAP
*RES
*END

*D_NET *13 0
*CONN
*P analog_io[21] O
*CAP
*RES
*END

*D_NET *14 0
*CONN
*P analog_io[22] O
*CAP
*RES
*END

*D_NET *15 0
*CONN
*P analog_io[23] O
*CAP
*RES
*END

*D_NET *16 0
*CONN
*P analog_io[24] O
*CAP
*RES
*END

*D_NET *17 0
*CONN
*P analog_io[25] O
*CAP
*RES
*END

*D_NET *18 0
*CONN
*P analog_io[26] O
*CAP
*RES
*END

*D_NET *19 0
*CONN
*P analog_io[27] O
*CAP
*RES
*END

*D_NET *20 0
*CONN
*P analog_io[28] O
*CAP
*RES
*END

*D_NET *21 0
*CONN
*P analog_io[29] O
*CAP
*RES
*END

*D_NET *22 0
*CONN
*P analog_io[2] O
*CAP
*RES
*END

*D_NET *23 0
*CONN
*P analog_io[30] O
*CAP
*RES
*END

*D_NET *24 0
*CONN
*P analog_io[3] O
*CAP
*RES
*END

*D_NET *25 0
*CONN
*P analog_io[4] O
*CAP
*RES
*END

*D_NET *26 0
*CONN
*P analog_io[5] O
*CAP
*RES
*END

*D_NET *27 0
*CONN
*P analog_io[6] O
*CAP
*RES
*END

*D_NET *28 0
*CONN
*P analog_io[7] O
*CAP
*RES
*END

*D_NET *29 0
*CONN
*P analog_io[8] O
*CAP
*RES
*END

*D_NET *30 0
*CONN
*P analog_io[9] O
*CAP
*RES
*END

*D_NET *31 0.12690521094020002
*CONN
*P io_in[0] I
*I mprj:io_in[0] I
*CAP
0 *31:1 0.00010326152718000001
1 *31:3 0.0014633263173
2 *31:5 0.0008326488740999999
3 mprj:io_in[0] 8.286251159999999e-05
4 *31:7 0.06195338963744001
5 *31:9 0.06246972207258
6 *31:8 0
7 *31:10 0
*RES
0 *31:1 *31:2 1.0624999999999998
1 *31:3 *31:4 2.6304333333333334
2 *31:5 *31:6 1.4773666666666667
3 mprj:io_in[0] *31:5 0.10653333333333334
4 *31:7 *31:8 652.625
5 *31:9 *31:10 715.9732142857142
6 *31:8 *31:2 0
7 *31:1 *31:3 0
8 *31:7 *31:9 0
9 *31:10 *31:6 0
*END

*D_NET *32 0.11198582253388001
*CONN
*P io_in[10] I
*I mprj:io_in[10] I
*CAP
8 *32:1 0.0012662396163
9 *32:3 0.04718927717462001
10 mprj:io_in[10] 0.0002576698464
11 *32:5 0.0011085702555
12 *32:7 0.00028863954154000006
13 *32:9 0.06187542609952
14 *32:10 0
15 *32:4 0
*RES
10 *32:1 *32:2 2.2701000000000002
11 *32:3 *32:4 540.8125
12 mprj:io_in[10] *32:5 0.42613333333333336
13 *32:5 *32:6 1.9818333333333336
14 *32:7 *32:8 3.1874999999999996
15 *32:9 *32:10 651.8035714285713
16 *32:10 *32:3 0
17 *32:4 *32:1 0
18 *32:7 *32:6 0
19 *32:9 *32:8 0
*END

*D_NET *33 0.12304536589048
*CONN
*P io_in[11] I
*I mprj:io_in[11] I
*CAP
16 *33:1 0.0013056569565
17 *33:3 0.05852381862406
18 mprj:io_in[11] 0.0001411316232
19 *33:5 0.0011085702555
20 *33:7 0.00012974410066
21 *33:9 0.06183644433055999
22 *33:10 0
23 *33:4 0
*RES
20 *33:1 *33:2 2.342166666666667
21 *33:3 *33:4 670.7410714285713
22 mprj:io_in[11] *33:5 0.21306666666666668
23 *33:5 *33:6 1.9818333333333336
24 *33:7 *33:8 1.3660714285714284
25 *33:9 *33:10 651.392857142857
26 *33:10 *33:3 0
27 *33:4 *33:1 0
28 *33:7 *33:6 0
29 *33:9 *33:8 0
*END

*D_NET *34 0.13407228881619998
*CONN
*P io_in[12] I
*I mprj:io_in[12] I
*CAP
24 *34:1 0.0013450742967
25 *34:3 0.06927574345694
26 mprj:io_in[12] 0.0002576698464
27 *34:5 0.0010297355751
28 *34:7 0.00028863954154000006
29 *34:9 0.06187542609952
30 *34:4 0
31 *34:10 0
*RES
30 *34:1 *34:2 2.4142333333333332
31 *34:3 *34:4 793.9910714285713
32 mprj:io_in[12] *34:5 0.42613333333333336
33 *34:5 *34:6 1.8377
34 *34:7 *34:8 3.1874999999999996
35 *34:9 *34:10 651.8035714285713
36 *34:4 *34:1 0
37 *34:10 *34:3 0
38 *34:7 *34:6 0
39 *34:9 *34:8 0
*END

*D_NET *35 0.1450784314546
*CONN
*P io_in[13] I
*I mprj:io_in[13] I
*CAP
32 *35:1 0.0013844916368999996
33 *35:3 0.08055731975942
34 mprj:io_in[13] 0.0001411316232
35 *35:5 0.0009903182348999999
36 *35:7 0.00012974410066
37 *35:9 0.06187542609952
38 *35:10 0
39 *35:4 0
*RES
40 *35:1 *35:2 2.4863
41 *35:3 *35:4 923.3124999999998
42 mprj:io_in[13] *35:5 0.21306666666666668
43 *35:5 *35:6 1.7656333333333334
44 *35:7 *35:8 1.3660714285714284
45 *35:9 *35:10 651.8035714285713
46 *35:10 *35:3 0
47 *35:4 *35:1 0
48 *35:7 *35:6 0
49 *35:9 *35:8 0
*END

*D_NET *36 0.15610535438032003
*CONN
*P io_in[14] I
*I mprj:io_in[14] I
*CAP
40 *36:1 0.0014239089770999999
41 *36:3 0.09130924459230001
42 mprj:io_in[14] 0.0002576698464
43 *36:5 0.0009114835544999999
44 *36:7 0.00028863954154000006
45 *36:9 0.06191440786848
46 *36:4 0
47 *36:10 0
*RES
50 *36:1 *36:2 2.5583666666666667
51 *36:3 *36:4 1046.5625
52 mprj:io_in[14] *36:5 0.42613333333333336
53 *36:5 *36:6 1.6215
54 *36:7 *36:8 3.1874999999999996
55 *36:9 *36:10 652.2142857142857
56 *36:4 *36:1 0
57 *36:10 *36:3 0
58 *36:7 *36:6 0
59 *36:9 *36:8 0
*END

*D_NET *37 0.15325931338208001
*CONN
*P io_in[15] I
*I mprj:io_in[15] I
*CAP
48 mprj:io_in[15] 0.0010831167459400002
49 *37:2 0.00028423114272
50 *37:4 0.09468577271100001
51 *37:6 0.0012949773337799998
52 *37:8 0.05591121544864
53 *37:9 0
54 *37:3 0
*RES
60 mprj:io_in[15] *37:1 12.294642857142856
61 *37:2 *37:3 2.875
62 *37:4 *37:5 1085.267857142857
63 *37:6 *37:7 14.723214285714283
64 *37:8 *37:9 588.9642857142857
65 *37:8 *37:5 0
66 *37:9 *37:6 0
67 *37:2 *37:1 0
68 *37:3 *37:4 0
*END

*D_NET *38 0.13880893808268
*CONN
*P io_in[16] I
*I mprj:io_in[16] I
*CAP
55 *38:1 0.04156592447136
56 mprj:io_in[16] 0.0001897193406
57 *38:3 0.09583776465738
58 *38:5 0.0012155296133400002
59 *38:2 0
*RES
69 *38:1 *38:2 437.82142857142856
70 mprj:io_in[16] *38:3 2.0535714285714284
71 *38:3 *38:4 1098.4732142857142
72 *38:5 *38:6 13.8125
73 *38:1 *38:4 0
74 *38:2 *38:5 0
*END

*D_NET *39 0.12435615901304001
*CONN
*P io_in[17] I
*I mprj:io_in[17] I
*CAP
60 mprj:io_in[17] 8.223124824000001e-05
61 *39:1 0.09597017752478001
62 *39:3 0.0010831167459400002
63 *39:5 0.027220633494079997
64 *39:6 0
*RES
75 mprj:io_in[17] *39:1 0.8214285714285714
76 *39:1 *39:2 1099.9910714285713
77 *39:3 *39:4 12.294642857142856
78 *39:5 *39:6 286.6785714285714
79 *39:5 *39:2 0
80 *39:6 *39:3 0
*END

*D_NET *40 0.10997010762060001
*CONN
*P io_in[18] I
*I mprj:io_in[18] I
*CAP
65 mprj:io_in[18] 0.00026137806884000004
66 *40:1 0.09586424723086001
67 *40:3 0.00124201218682
68 *40:5 0.01260247013408
69 *40:6 0
*RES
81 mprj:io_in[18] *40:1 2.875
82 *40:1 *40:2 1098.7767857142858
83 *40:3 *40:4 14.116071428571427
84 *40:5 *40:6 132.66071428571428
85 *40:5 *40:2 0
86 *40:6 *40:3 0
*END

*D_NET *41 0.09864585506912
*CONN
*P io_in[19] I
*I mprj:io_in[19] I
*CAP
70 *41:1 0.0005960852944
71 mprj:io_in[19] 0.0011360818929000002
72 *41:4 0.000985902984
73 *41:6 0.09439446440272001
74 *41:8 0.0015333204951000002
75 *41:2 0
76 *41:5 0
*RES
87 *41:1 *41:2 6.160714285714286
88 mprj:io_in[19] *41:3 12.901785714285712
89 *41:4 *41:5 10.267857142857142
90 *41:6 *41:7 1081.9285714285713
91 *41:8 *41:9 17.455357142857142
92 *41:1 *41:8 0
93 *41:2 *41:7 0
94 *41:5 *41:3 0
95 *41:4 *41:6 0
*END

*D_NET *42 0.11572265629080002
*CONN
*P io_in[1] I
*I mprj:io_in[1] I
*CAP
77 *42:1 0.00012974410066
78 *42:3 0.0016209956780999998
79 *42:5 0.0011297360607
80 *42:7 0.061680517254720006
81 *42:9 0.05116166319662001
82 *42:8 0
83 *42:10 0
*RES
96 *42:1 *42:2 1.3660714285714284
97 *42:3 *42:4 2.9187000000000003
98 *42:5 *42:6 1.5494333333333334
99 *42:5 mprj:io_in[1] 0.42613333333333336
100 *42:7 *42:8 649.75
101 *42:9 *42:10 586.3482142857142
102 *42:8 *42:2 0
103 *42:1 *42:3 0
104 *42:7 *42:9 0
105 *42:10 *42:6 0
*END

*D_NET *43 0.11310809135328001
*CONN
*P io_in[20] I
*I mprj:io_in[20] I
*CAP
84 *43:1 0.00032321291168
85 *43:3 0.09526838932756002
86 *43:5 0.00047401755590000005
87 mprj:io_in[20] 0.0013214599072599999
88 *43:8 0.01572101165088
89 *43:2 0
90 *43:9 0
*RES
106 *43:1 *43:2 3.2857142857142856
107 *43:3 *43:4 1091.9464285714284
108 *43:5 *43:6 5.3125
109 mprj:io_in[20] *43:7 15.026785714285712
110 *43:8 *43:9 165.5178571428571
111 *43:1 *43:5 0
112 *43:2 *43:4 0
113 *43:8 *43:3 0
114 *43:9 *43:7 0
*END

*D_NET *44 0.12757032763744003
*CONN
*P io_in[21] I
*I mprj:io_in[21] I
*CAP
91 *44:1 0.00032321291168
92 *44:3 0.09428853410880002
93 *44:5 0.0015333204951000002
94 mprj:io_in[21] 0.00124201218682
95 *44:8 0.03018324793504
96 *44:2 0
97 *44:9 0
*RES
115 *44:1 *44:2 3.2857142857142856
116 *44:3 *44:4 1080.7142857142858
117 *44:5 *44:6 17.455357142857142
118 mprj:io_in[21] *44:7 14.116071428571427
119 *44:8 *44:9 317.8928571428571
120 *44:1 *44:5 0
121 *44:2 *44:4 0
122 *44:8 *44:3 0
123 *44:9 *44:7 0
*END

*D_NET *45 0.14199358215264002
*CONN
*P io_in[22] I
*I mprj:io_in[22] I
*CAP
98 mprj:io_in[22] 0.0013744250542200003
99 *45:2 0.00032321291168
100 *45:4 0.09415612124140002
101 *45:6 0.0015333204951000002
102 *45:8 0.04460650245024
103 *45:9 0
104 *45:3 0
*RES
124 mprj:io_in[22] *45:1 15.633928571428571
125 *45:2 *45:3 3.2857142857142856
126 *45:4 *45:5 1079.1964285714284
127 *45:6 *45:7 17.455357142857142
128 *45:8 *45:9 469.85714285714283
129 *45:9 *45:1 0
130 *45:2 *45:6 0
131 *45:3 *45:5 0
132 *45:8 *45:4 0
*END

*D_NET *46 0.1564558184368
*CONN
*P io_in[23] I
*I mprj:io_in[23] I
*CAP
105 *46:1 0.0003621946806399999
106 *46:3 0.09455335984360001
107 *46:5 0.0012155296133400002
108 mprj:io_in[23] 0.0012949773337799998
109 *46:8 0.05902975696544001
110 *46:2 0
111 *46:9 0
*RES
133 *46:1 *46:2 3.6964285714285707
134 *46:3 *46:4 1083.7499999999998
135 *46:5 *46:6 13.8125
136 mprj:io_in[23] *46:7 14.723214285714283
137 *46:8 *46:9 621.8214285714286
138 *46:1 *46:5 0
139 *46:2 *46:4 0
140 *46:8 *46:3 0
141 *46:9 *46:7 0
*END

*D_NET *47 0.16077600138556003
*CONN
*P io_in[24] I
*I mprj:io_in[24] I
*CAP
112 *47:1 0.00039456983545999995
113 *47:3 0.0011479875956999998
114 *47:4 0.06312284270624
115 *47:6 0.0013056569565
116 *47:8 0.09480494429166002
117 *47:5 0
118 *47:9 0
*RES
142 *47:1 *47:2 4.4017857142857135
143 *47:3 mprj:io_in[24] 2.0539
144 *47:4 *47:5 664.9464285714286
145 *47:6 *47:7 2.342166666666667
146 *47:8 *47:9 1086.6339285714284
147 *47:4 *47:8 0
148 *47:5 *47:2 0
149 *47:1 *47:3 0
150 *47:9 *47:7 0
*END

*D_NET *48 0.14621145711404
*CONN
*P io_in[25] I
*I mprj:io_in[25] I
*CAP
119 *48:1 0.00010326152718000001
120 *48:3 0.0011479875956999998
121 *48:4 0.06304487916832
122 *48:6 0.0013844916368999996
123 *48:8 0.08053083718594001
124 *48:5 0
125 *48:9 0
*RES
151 *48:1 *48:2 1.0624999999999998
152 *48:3 mprj:io_in[25] 2.0539
153 *48:4 *48:5 664.125
154 *48:6 *48:7 2.4863
155 *48:8 *48:9 923.0089285714284
156 *48:4 *48:8 0
157 *48:5 *48:2 0
158 *48:1 *48:3 0
159 *48:9 *48:7 0
*END

*D_NET *49 0.13159089869688
*CONN
*P io_in[26] I
*I mprj:io_in[26] I
*CAP
126 *49:1 0.00031512211502
127 *49:3 0.0008326488740999999
128 *49:4 0.06323978801312
129 *49:6 0.0015027436575
130 *49:8 0.06570059603714
131 *49:5 0
132 *49:9 0
*RES
160 *49:1 *49:2 3.4910714285714284
161 *49:3 mprj:io_in[26] 1.4773666666666667
162 *49:4 *49:5 666.1785714285713
163 *49:6 *49:7 2.7025
164 *49:8 *49:9 753.0089285714286
165 *49:4 *49:8 0
166 *49:5 *49:2 0
167 *49:1 *49:3 0
168 *49:9 *49:7 0
*END

*D_NET *50 0.11702548328288001
*CONN
*P io_in[27] I
*I mprj:io_in[27] I
*CAP
133 *50:1 5.029638022e-05
134 *50:3 0.0010691529153
135 *50:4 0.06323978801312
136 *50:6 0.0012662396163
137 *50:8 0.05140000635794
138 *50:5 0
139 *50:9 0
*RES
169 *50:1 *50:2 0.45535714285714285
170 *50:3 mprj:io_in[27] 1.9097666666666666
171 *50:4 *50:5 666.1785714285713
172 *50:6 *50:7 2.2701000000000002
173 *50:8 *50:9 589.0803571428571
174 *50:4 *50:8 0
175 *50:5 *50:2 0
176 *50:1 *50:3 0
177 *50:9 *50:7 0
*END

*D_NET *51 0.1023502174338
*CONN
*P io_in[28] I
*I mprj:io_in[28] I
*CAP
140 *51:1 0.0011479875956999998
141 *51:3 0.036490317488700005
142 *51:5 0.00028863954154000006
143 *51:7 0.0008326488740999999
144 *51:8 0.06359062393376
145 *51:4 0
146 *51:9 0
*RES
178 *51:1 *51:2 2.0539
179 *51:3 *51:4 418.16964285714283
180 *51:5 *51:6 3.1874999999999996
181 *51:7 mprj:io_in[28] 1.4773666666666667
182 *51:8 *51:9 669.8749999999999
183 *51:8 *51:3 0
184 *51:4 *51:2 0
185 *51:9 *51:6 0
186 *51:5 *51:7 0
*END

*D_NET *52 0.08778654430475999
*CONN
*P io_in[29] I
*I mprj:io_in[29] I
*CAP
147 *52:1 0.0013056569565
148 *52:3 0.0221897278095
149 *52:5 2.3813806740000006e-05
150 *52:7 0.0008326488740999999
151 *52:8 0.06343469685792
152 *52:4 0
153 *52:9 0
*RES
187 *52:1 *52:2 2.342166666666667
188 *52:3 *52:4 254.24107142857142
189 *52:5 *52:6 0.15178571428571427
190 *52:7 mprj:io_in[29] 1.4773666666666667
191 *52:8 *52:9 668.2321428571428
192 *52:8 *52:3 0
193 *52:4 *52:2 0
194 *52:9 *52:6 0
195 *52:5 *52:7 0
*END

*D_NET *53 0.10487606551723999
*CONN
*P io_in[2] I
*I mprj:io_in[2] I
*CAP
154 *53:1 0.00012974410066
155 *53:3 0.0016209956780999998
156 *53:5 0.0010691529153
157 mprj:io_in[2] 8.286251159999999e-05
158 *53:7 0.04040973836374
159 *53:9 0.06156357194784
160 *53:10 0
161 *53:8 0
*RES
196 *53:1 *53:2 1.3660714285714284
197 *53:3 *53:4 2.9187000000000003
198 *53:5 *53:6 1.9097666666666666
199 mprj:io_in[2] *53:5 0.10653333333333334
200 *53:7 *53:8 463.0982142857142
201 *53:9 *53:10 648.5178571428571
202 *53:10 *53:2 0
203 *53:1 *53:3 0
204 *53:8 *53:6 0
205 *53:9 *53:7 0
*END

*D_NET *54 0.07316903488628
*CONN
*P io_in[30] I
*I mprj:io_in[30] I
*CAP
162 *54:1 0.0013844916368999996
163 *54:3 0.007333004087220001
164 *54:5 0.00026215696806
165 *54:7 0.0008326488740999999
166 *54:8 0.06335673332
167 *54:4 0
168 *54:9 0
*RES
206 *54:1 *54:2 2.4863
207 *54:3 *54:4 83.9375
208 *54:5 *54:6 2.883928571428571
209 *54:7 mprj:io_in[30] 1.4773666666666667
210 *54:8 *54:9 667.4107142857142
211 *54:8 *54:3 0
212 *54:4 *54:2 0
213 *54:9 *54:6 0
214 *54:5 *54:7 0
*END

*D_NET *55 0.06702725569512
*CONN
*P io_in[31] I
*I mprj:io_in[31] I
*CAP
169 *55:1 0.0015815783379000002
170 *55:3 0.0009242213050600002
171 *55:5 0.00052698270286
172 *55:7 0.0008326488740999999
173 *55:8 0.0631618244752
174 *55:9 0
175 *55:6 0
*RES
215 *55:1 *55:2 2.8466333333333336
216 *55:3 *55:4 10.473214285714285
217 *55:5 *55:6 5.919642857142857
218 *55:7 mprj:io_in[31] 1.4773666666666667
219 *55:8 *55:9 665.3571428571429
220 *55:3 *55:2 0
221 *55:8 *55:4 0
222 *55:9 *55:5 0
223 *55:6 *55:7 0
*END

*D_NET *56 0.07603568639071999
*CONN
*P io_in[32] I
*I mprj:io_in[32] I
*CAP
176 *56:1 0.0015027436575
177 *56:3 0.01024608717002
178 *56:5 0.00020919182110000001
179 *56:7 0.0013056569565
180 *56:8 0.06277200678559999
181 *56:9 0
182 *56:6 0
*RES
224 *56:1 *56:2 2.7025
225 *56:3 *56:4 117.33035714285712
226 *56:5 *56:6 2.276785714285714
227 *56:7 mprj:io_in[32] 2.342166666666667
228 *56:8 *56:9 661.25
229 *56:3 *56:2 0
230 *56:8 *56:4 0
231 *56:9 *56:5 0
232 *56:6 *56:7 0
*END

*D_NET *57 0.0850896775222
*CONN
*P io_in[33] I
*I mprj:io_in[33] I
*CAP
183 *57:1 0.0014633263173
184 *57:3 0.019462022741059997
185 *57:5 5.029638022e-05
186 *57:7 0.0010691529153
187 *57:8 0.06304487916832
188 *57:9 0
189 *57:6 0
*RES
233 *57:1 *57:2 2.6304333333333334
234 *57:3 *57:4 222.97321428571425
235 *57:5 *57:6 0.45535714285714285
236 *57:7 mprj:io_in[33] 1.9097666666666666
237 *57:8 *57:9 664.125
238 *57:3 *57:2 0
239 *57:8 *57:4 0
240 *57:9 *57:5 0
241 *57:6 *57:7 0
*END

*D_NET *58 0.09408983236424001
*CONN
*P io_in[34] I
*I mprj:io_in[34] I
*CAP
190 *58:1 0.0011085702555
191 *58:2 0.0010691529153
192 *58:4 0.00020919182110000001
193 *58:6 0.06339571508896001
194 *58:8 0.028307202283380004
195 *58:9 0
196 *58:7 0
*RES
242 *58:1 mprj:io_in[34] 1.9818333333333336
243 *58:2 *58:3 1.9097666666666666
244 *58:4 *58:5 2.276785714285714
245 *58:6 *58:7 667.8214285714286
246 *58:8 *58:9 324.3660714285714
247 *58:9 *58:1 0
248 *58:4 *58:3 0
249 *58:6 *58:5 0
250 *58:7 *58:8 0
*END

*D_NET *59 0.10304486234164
*CONN
*P io_in[35] I
*I mprj:io_in[35] I
*CAP
197 *59:1 0.0012268222761
198 *59:3 7.67789537e-05
199 *59:5 0.0013056569565
200 *59:6 0.03739072498702
201 *59:8 0.06304487916832
202 *59:9 0
203 *59:4 0
*RES
251 *59:1 *59:2 2.198033333333333
252 *59:3 *59:4 0.7589285714285713
253 *59:5 mprj:io_in[35] 2.342166666666667
254 *59:6 *59:7 428.4910714285714
255 *59:8 *59:9 664.125
256 *59:6 *59:2 0
257 *59:8 *59:7 0
258 *59:9 *59:3 0
259 *59:4 *59:5 0
*END

*D_NET *60 0.11204719503988
*CONN
*P io_in[36] I
*I mprj:io_in[36] I
*CAP
204 *60:1 0.0015421609977
205 *60:3 0.00034160468850000003
206 *60:5 0.0008326488740999999
207 *60:6 0.04612997423542001
208 *60:8 0.06320080624416
209 *60:9 0
210 *60:4 0
*RES
260 *60:1 *60:2 2.774566666666667
261 *60:3 *60:4 3.7946428571428568
262 *60:5 mprj:io_in[36] 1.4773666666666667
263 *60:6 *60:7 528.6696428571428
264 *60:8 *60:9 665.767857142857
265 *60:6 *60:2 0
266 *60:8 *60:7 0
267 *60:9 *60:3 0
268 *60:4 *60:5 0
*END

*D_NET *61 0.12110292845632001
*CONN
*P io_in[37] I
*I mprj:io_in[37] I
*CAP
211 *61:1 0.00012974410066
212 *61:3 0.0008326488740999999
213 *61:4 0.0014239089770999999
214 *61:6 0.05539887495342
215 *61:8 0.06331775155104
216 *61:9 0
217 *61:2 0
*RES
269 *61:1 *61:2 1.3660714285714284
270 *61:3 mprj:io_in[37] 1.4773666666666667
271 *61:4 *61:5 2.5583666666666667
272 *61:6 *61:7 634.9196428571428
273 *61:8 *61:9 666.9999999999999
274 *61:8 *61:7 0
275 *61:9 *61:1 0
276 *61:2 *61:3 0
277 *61:6 *61:5 0
*END

*D_NET *62 0.09368697729924
*CONN
*P io_in[3] I
*I mprj:io_in[3] I
*CAP
218 *62:1 0.00012974410066
219 *62:3 0.0016209956780999998
220 *62:5 0.0009326493597
221 *62:7 0.06187542609952
222 *62:9 0.02912816206126
223 *62:8 0
224 *62:10 0
*RES
278 *62:1 *62:2 1.3660714285714284
279 *62:3 *62:4 2.9187000000000003
280 *62:5 *62:6 1.1891
281 *62:5 mprj:io_in[3] 0.42613333333333336
282 *62:7 *62:8 651.8035714285713
283 *62:9 *62:10 333.77678571428567
284 *62:8 *62:2 0
285 *62:1 *62:3 0
286 *62:7 *62:9 0
287 *62:10 *62:6 0
*END

*D_NET *63 0.08283864424072
*CONN
*P io_in[4] I
*I mprj:io_in[4] I
*CAP
225 *63:1 0.00010326152718000001
226 *63:3 0.0014633263173
227 *63:5 0.0008720662143000001
228 mprj:io_in[4] 8.286251159999999e-05
229 *63:7 0.01840271980186
230 *63:9 0.06191440786848
231 *63:10 0
232 *63:8 0
*RES
288 *63:1 *63:2 1.0624999999999998