*SPEF "IEEE 1481-1998"
*DESIGN "user_project_wrapper"
*DATE "Wed Dec 16 19:46:09 2020"
*VENDOR "AUC CSCE Department"
*PROGRAM "SPEF Extractor"
*VERSION "1.0"
*DESIGN_FLOW "PIN_CAP NONE"
*DIVIDER /
*DELIMITER :
*BUS_DELIMITER []
*T_UNIT 1.00000 NS
*C_UNIT 1.00000 PF
*R_UNIT 1.00000 OHM
*L_UNIT 1.00000 HENRY


*NAME_MAP
*0 analog_io[0]
*1 analog_io[10]
*2 analog_io[11]
*3 analog_io[12]
*4 analog_io[13]
*5 analog_io[14]
*6 analog_io[15]
*7 analog_io[16]
*8 analog_io[17]
*9 analog_io[18]
*10 analog_io[19]
*11 analog_io[1]
*12 analog_io[20]
*13 analog_io[21]
*14 analog_io[22]
*15 analog_io[23]
*16 analog_io[24]
*17 analog_io[25]
*18 analog_io[26]
*19 analog_io[27]
*20 analog_io[28]
*21 analog_io[29]
*22 analog_io[2]
*23 analog_io[30]
*24 analog_io[3]
*25 analog_io[4]
*26 analog_io[5]
*27 analog_io[6]
*28 analog_io[7]
*29 analog_io[8]
*30 analog_io[9]
*31 io_in[0]
*32 io_in[10]
*33 io_in[11]
*34 io_in[12]
*35 io_in[13]
*36 io_in[14]
*37 io_in[15]
*38 io_in[16]
*39 io_in[17]
*40 io_in[18]
*41 io_in[19]
*42 io_in[1]
*43 io_in[20]
*44 io_in[21]
*45 io_in[22]
*46 io_in[23]
*47 io_in[24]
*48 io_in[25]
*49 io_in[26]
*50 io_in[27]
*51 io_in[28]
*52 io_in[29]
*53 io_in[2]
*54 io_in[30]
*55 io_in[31]
*56 io_in[32]
*57 io_in[33]
*58 io_in[34]
*59 io_in[35]
*60 io_in[36]
*61 io_in[37]
*62 io_in[3]
*63 io_in[4]
*64 io_in[5]
*65 io_in[6]
*66 io_in[7]
*67 io_in[8]
*68 io_in[9]
*69 io_oeb[0]
*70 io_oeb[10]
*71 io_oeb[11]
*72 io_oeb[12]
*73 io_oeb[13]
*74 io_oeb[14]
*75 io_oeb[15]
*76 io_oeb[16]
*77 io_oeb[17]
*78 io_oeb[18]
*79 io_oeb[19]
*80 io_oeb[1]
*81 io_oeb[20]
*82 io_oeb[21]
*83 io_oeb[22]
*84 io_oeb[23]
*85 io_oeb[24]
*86 io_oeb[25]
*87 io_oeb[26]
*88 io_oeb[27]
*89 io_oeb[28]
*90 io_oeb[29]
*91 io_oeb[2]
*92 io_oeb[30]
*93 io_oeb[31]
*94 io_oeb[32]
*95 io_oeb[33]
*96 io_oeb[34]
*97 io_oeb[35]
*98 io_oeb[36]
*99 io_oeb[37]
*100 io_oeb[3]
*101 io_oeb[4]
*102 io_oeb[5]
*103 io_oeb[6]
*104 io_oeb[7]
*105 io_oeb[8]
*106 io_oeb[9]
*107 io_out[0]
*108 io_out[10]
*109 io_out[11]
*110 io_out[12]
*111 io_out[13]
*112 io_out[14]
*113 io_out[15]
*114 io_out[16]
*115 io_out[17]
*116 io_out[18]
*117 io_out[19]
*118 io_out[1]
*119 io_out[20]
*120 io_out[21]
*121 io_out[22]
*122 io_out[23]
*123 io_out[24]
*124 io_out[25]
*125 io_out[26]
*126 io_out[27]
*127 io_out[28]
*128 io_out[29]
*129 io_out[2]
*130 io_out[30]
*131 io_out[31]
*132 io_out[32]
*133 io_out[33]
*134 io_out[34]
*135 io_out[35]
*136 io_out[36]
*137 io_out[37]
*138 io_out[3]
*139 io_out[4]
*140 io_out[5]
*141 io_out[6]
*142 io_out[7]
*143 io_out[8]
*144 io_out[9]
*145 la_data_in[0]
*146 la_data_in[100]
*147 la_data_in[101]
*148 la_data_in[102]
*149 la_data_in[103]
*150 la_data_in[104]
*151 la_data_in[105]
*152 la_data_in[106]
*153 la_data_in[107]
*154 la_data_in[108]
*155 la_data_in[109]
*156 la_data_in[10]
*157 la_data_in[110]
*158 la_data_in[111]
*159 la_data_in[112]
*160 la_data_in[113]
*161 la_data_in[114]
*162 la_data_in[115]
*163 la_data_in[116]
*164 la_data_in[117]
*165 la_data_in[118]
*166 la_data_in[119]
*167 la_data_in[11]
*168 la_data_in[120]
*169 la_data_in[121]
*170 la_data_in[122]
*171 la_data_in[123]
*172 la_data_in[124]
*173 la_data_in[125]
*174 la_data_in[126]
*175 la_data_in[127]
*176 la_data_in[12]
*177 la_data_in[13]
*178 la_data_in[14]
*179 la_data_in[15]
*180 la_data_in[16]
*181 la_data_in[17]
*182 la_data_in[18]
*183 la_data_in[19]
*184 la_data_in[1]
*185 la_data_in[20]
*186 la_data_in[21]
*187 la_data_in[22]
*188 la_data_in[23]
*189 la_data_in[24]
*190 la_data_in[25]
*191 la_data_in[26]
*192 la_data_in[27]
*193 la_data_in[28]
*194 la_data_in[29]
*195 la_data_in[2]
*196 la_data_in[30]
*197 la_data_in[31]
*198 la_data_in[32]
*199 la_data_in[33]
*200 la_data_in[34]
*201 la_data_in[35]
*202 la_data_in[36]
*203 la_data_in[37]
*204 la_data_in[38]
*205 la_data_in[39]
*206 la_data_in[3]
*207 la_data_in[40]
*208 la_data_in[41]
*209 la_data_in[42]
*210 la_data_in[43]
*211 la_data_in[44]
*212 la_data_in[45]
*213 la_data_in[46]
*214 la_data_in[47]
*215 la_data_in[48]
*216 la_data_in[49]
*217 la_data_in[4]
*218 la_data_in[50]
*219 la_data_in[51]
*220 la_data_in[52]
*221 la_data_in[53]
*222 la_data_in[54]
*223 la_data_in[55]
*224 la_data_in[56]
*225 la_data_in[57]
*226 la_data_in[58]
*227 la_data_in[59]
*228 la_data_in[5]
*229 la_data_in[60]
*230 la_data_in[61]
*231 la_data_in[62]
*232 la_data_in[63]
*233 la_data_in[64]
*234 la_data_in[65]
*235 la_data_in[66]
*236 la_data_in[67]
*237 la_data_in[68]
*238 la_data_in[69]
*239 la_data_in[6]
*240 la_data_in[70]
*241 la_data_in[71]
*242 la_data_in[72]
*243 la_data_in[73]
*244 la_data_in[74]
*245 la_data_in[75]
*246 la_data_in[76]
*247 la_data_in[77]
*248 la_data_in[78]
*249 la_data_in[79]
*250 la_data_in[7]
*251 la_data_in[80]
*252 la_data_in[81]
*253 la_data_in[82]
*254 la_data_in[83]
*255 la_data_in[84]
*256 la_data_in[85]
*257 la_data_in[86]
*258 la_data_in[87]
*259 la_data_in[88]
*260 la_data_in[89]
*261 la_data_in[8]
*262 la_data_in[90]
*263 la_data_in[91]
*264 la_data_in[92]
*265 la_data_in[93]
*266 la_data_in[94]
*267 la_data_in[95]
*268 la_data_in[96]
*269 la_data_in[97]
*270 la_data_in[98]
*271 la_data_in[99]
*272 la_data_in[9]
*273 la_data_out[0]
*274 la_data_out[100]
*275 la_data_out[101]
*276 la_data_out[102]
*277 la_data_out[103]
*278 la_data_out[104]
*279 la_data_out[105]
*280 la_data_out[106]
*281 la_data_out[107]
*282 la_data_out[108]
*283 la_data_out[109]
*284 la_data_out[10]
*285 la_data_out[110]
*286 la_data_out[111]
*287 la_data_out[112]
*288 la_data_out[113]
*289 la_data_out[114]
*290 la_data_out[115]
*291 la_data_out[116]
*292 la_data_out[117]
*293 la_data_out[118]
*294 la_data_out[119]
*295 la_data_out[11]
*296 la_data_out[120]
*297 la_data_out[121]
*298 la_data_out[122]
*299 la_data_out[123]
*300 la_data_out[124]
*301 la_data_out[125]
*302 la_data_out[126]
*303 la_data_out[127]
*304 la_data_out[12]
*305 la_data_out[13]
*306 la_data_out[14]
*307 la_data_out[15]
*308 la_data_out[16]
*309 la_data_out[17]
*310 la_data_out[18]
*311 la_data_out[19]
*312 la_data_out[1]
*313 la_data_out[20]
*314 la_data_out[21]
*315 la_data_out[22]
*316 la_data_out[23]
*317 la_data_out[24]
*318 la_data_out[25]
*319 la_data_out[26]
*320 la_data_out[27]
*321 la_data_out[28]
*322 la_data_out[29]
*323 la_data_out[2]
*324 la_data_out[30]
*325 la_data_out[31]
*326 la_data_out[32]
*327 la_data_out[33]
*328 la_data_out[34]
*329 la_data_out[35]
*330 la_data_out[36]
*331 la_data_out[37]
*332 la_data_out[38]
*333 la_data_out[39]
*334 la_data_out[3]
*335 la_data_out[40]
*336 la_data_out[41]
*337 la_data_out[42]
*338 la_data_out[43]
*339 la_data_out[44]
*340 la_data_out[45]
*341 la_data_out[46]
*342 la_data_out[47]
*343 la_data_out[48]
*344 la_data_out[49]
*345 la_data_out[4]
*346 la_data_out[50]
*347 la_data_out[51]
*348 la_data_out[52]
*349 la_data_out[53]
*350 la_data_out[54]
*351 la_data_out[55]
*352 la_data_out[56]
*353 la_data_out[57]
*354 la_data_out[58]
*355 la_data_out[59]
*356 la_data_out[5]
*357 la_data_out[60]
*358 la_data_out[61]
*359 la_data_out[62]
*360 la_data_out[63]
*361 la_data_out[64]
*362 la_data_out[65]
*363 la_data_out[66]
*364 la_data_out[67]
*365 la_data_out[68]
*366 la_data_out[69]
*367 la_data_out[6]
*368 la_data_out[70]
*369 la_data_out[71]
*370 la_data_out[72]
*371 la_data_out[73]
*372 la_data_out[74]
*373 la_data_out[75]
*374 la_data_out[76]
*375 la_data_out[77]
*376 la_data_out[78]
*377 la_data_out[79]
*378 la_data_out[7]
*379 la_data_out[80]
*380 la_data_out[81]
*381 la_data_out[82]
*382 la_data_out[83]
*383 la_data_out[84]
*384 la_data_out[85]
*385 la_data_out[86]
*386 la_data_out[87]
*387 la_data_out[88]
*388 la_data_out[89]
*389 la_data_out[8]
*390 la_data_out[90]
*391 la_data_out[91]
*392 la_data_out[92]
*393 la_data_out[93]
*394 la_data_out[94]
*395 la_data_out[95]
*396 la_data_out[96]
*397 la_data_out[97]
*398 la_data_out[98]
*399 la_data_out[99]
*400 la_data_out[9]
*401 la_oen[0]
*402 la_oen[100]
*403 la_oen[101]
*404 la_oen[102]
*405 la_oen[103]
*406 la_oen[104]
*407 la_oen[105]
*408 la_oen[106]
*409 la_oen[107]
*410 la_oen[108]
*411 la_oen[109]
*412 la_oen[10]
*413 la_oen[110]
*414 la_oen[111]
*415 la_oen[112]
*416 la_oen[113]
*417 la_oen[114]
*418 la_oen[115]
*419 la_oen[116]
*420 la_oen[117]
*421 la_oen[118]
*422 la_oen[119]
*423 la_oen[11]
*424 la_oen[120]
*425 la_oen[121]
*426 la_oen[122]
*427 la_oen[123]
*428 la_oen[124]
*429 la_oen[125]
*430 la_oen[126]
*431 la_oen[127]
*432 la_oen[12]
*433 la_oen[13]
*434 la_oen[14]
*435 la_oen[15]
*436 la_oen[16]
*437 la_oen[17]
*438 la_oen[18]
*439 la_oen[19]
*440 la_oen[1]
*441 la_oen[20]
*442 la_oen[21]
*443 la_oen[22]
*444 la_oen[23]
*445 la_oen[24]
*446 la_oen[25]
*447 la_oen[26]
*448 la_oen[27]
*449 la_oen[28]
*450 la_oen[29]
*451 la_oen[2]
*452 la_oen[30]
*453 la_oen[31]
*454 la_oen[32]
*455 la_oen[33]
*456 la_oen[34]
*457 la_oen[35]
*458 la_oen[36]
*459 la_oen[37]
*460 la_oen[38]
*461 la_oen[39]
*462 la_oen[3]
*463 la_oen[40]
*464 la_oen[41]
*465 la_oen[42]
*466 la_oen[43]
*467 la_oen[44]
*468 la_oen[45]
*469 la_oen[46]
*470 la_oen[47]
*471 la_oen[48]
*472 la_oen[49]
*473 la_oen[4]
*474 la_oen[50]
*475 la_oen[51]
*476 la_oen[52]
*477 la_oen[53]
*478 la_oen[54]
*479 la_oen[55]
*480 la_oen[56]
*481 la_oen[57]
*482 la_oen[58]
*483 la_oen[59]
*484 la_oen[5]
*485 la_oen[60]
*486 la_oen[61]
*487 la_oen[62]
*488 la_oen[63]
*489 la_oen[64]
*490 la_oen[65]
*491 la_oen[66]
*492 la_oen[67]
*493 la_oen[68]
*494 la_oen[69]
*495 la_oen[6]
*496 la_oen[70]
*497 la_oen[71]
*498 la_oen[72]
*499 la_oen[73]
*500 la_oen[74]
*501 la_oen[75]
*502 la_oen[76]
*503 la_oen[77]
*504 la_oen[78]
*505 la_oen[79]
*506 la_oen[7]
*507 la_oen[80]
*508 la_oen[81]
*509 la_oen[82]
*510 la_oen[83]
*511 la_oen[84]
*512 la_oen[85]
*513 la_oen[86]
*514 la_oen[87]
*515 la_oen[88]
*516 la_oen[89]
*517 la_oen[8]
*518 la_oen[90]
*519 la_oen[91]
*520 la_oen[92]
*521 la_oen[93]
*522 la_oen[94]
*523 la_oen[95]
*524 la_oen[96]
*525 la_oen[97]
*526 la_oen[98]
*527 la_oen[99]
*528 la_oen[9]
*529 user_clock2
*530 wb_clk_i
*531 wb_rst_i
*532 wbs_ack_o
*533 wbs_adr_i[0]
*534 wbs_adr_i[10]
*535 wbs_adr_i[11]
*536 wbs_adr_i[12]
*537 wbs_adr_i[13]
*538 wbs_adr_i[14]
*539 wbs_adr_i[15]
*540 wbs_adr_i[16]
*541 wbs_adr_i[17]
*542 wbs_adr_i[18]
*543 wbs_adr_i[19]
*544 wbs_adr_i[1]
*545 wbs_adr_i[20]
*546 wbs_adr_i[21]
*547 wbs_adr_i[22]
*548 wbs_adr_i[23]
*549 wbs_adr_i[24]
*550 wbs_adr_i[25]
*551 wbs_adr_i[26]
*552 wbs_adr_i[27]
*553 wbs_adr_i[28]
*554 wbs_adr_i[29]
*555 wbs_adr_i[2]
*556 wbs_adr_i[30]
*557 wbs_adr_i[31]
*558 wbs_adr_i[3]
*559 wbs_adr_i[4]
*560 wbs_adr_i[5]
*561 wbs_adr_i[6]
*562 wbs_adr_i[7]
*563 wbs_adr_i[8]
*564 wbs_adr_i[9]
*565 wbs_cyc_i
*566 wbs_dat_i[0]
*567 wbs_dat_i[10]
*568 wbs_dat_i[11]
*569 wbs_dat_i[12]
*570 wbs_dat_i[13]
*571 wbs_dat_i[14]
*572 wbs_dat_i[15]
*573 wbs_dat_i[16]
*574 wbs_dat_i[17]
*575 wbs_dat_i[18]
*576 wbs_dat_i[19]
*577 wbs_dat_i[1]
*578 wbs_dat_i[20]
*579 wbs_dat_i[21]
*580 wbs_dat_i[22]
*581 wbs_dat_i[23]
*582 wbs_dat_i[24]
*583 wbs_dat_i[25]
*584 wbs_dat_i[26]
*585 wbs_dat_i[27]
*586 wbs_dat_i[28]
*587 wbs_dat_i[29]
*588 wbs_dat_i[2]
*589 wbs_dat_i[30]
*590 wbs_dat_i[31]
*591 wbs_dat_i[3]
*592 wbs_dat_i[4]
*593 wbs_dat_i[5]
*594 wbs_dat_i[6]
*595 wbs_dat_i[7]
*596 wbs_dat_i[8]
*597 wbs_dat_i[9]
*598 wbs_dat_o[0]
*599 wbs_dat_o[10]
*600 wbs_dat_o[11]
*601 wbs_dat_o[12]
*602 wbs_dat_o[13]
*603 wbs_dat_o[14]
*604 wbs_dat_o[15]
*605 wbs_dat_o[16]
*606 wbs_dat_o[17]
*607 wbs_dat_o[18]
*608 wbs_dat_o[19]
*609 wbs_dat_o[1]
*610 wbs_dat_o[20]
*611 wbs_dat_o[21]
*612 wbs_dat_o[22]
*613 wbs_dat_o[23]
*614 wbs_dat_o[24]
*615 wbs_dat_o[25]
*616 wbs_dat_o[26]
*617 wbs_dat_o[27]
*618 wbs_dat_o[28]
*619 wbs_dat_o[29]
*620 wbs_dat_o[2]
*621 wbs_dat_o[30]
*622 wbs_dat_o[31]
*623 wbs_dat_o[3]
*624 wbs_dat_o[4]
*625 wbs_dat_o[5]
*626 wbs_dat_o[6]
*627 wbs_dat_o[7]
*628 wbs_dat_o[8]
*629 wbs_dat_o[9]
*630 wbs_sel_i[0]
*631 wbs_sel_i[1]
*632 wbs_sel_i[2]
*633 wbs_sel_i[3]
*634 wbs_stb_i
*635 wbs_we_i

*D_NET *0 0
*CONN
*P analog_io[0] O
*CAP
*RES
*END

*D_NET *1 0
*CONN
*P analog_io[10] O
*CAP
*RES
*END

*D_NET *2 0
*CONN
*P analog_io[11] O
*CAP
*RES
*END

*D_NET *3 0
*CONN
*P analog_io[12] O
*CAP
*RES
*END

*D_NET *4 0
*CONN
*P analog_io[13] O
*CAP
*RES
*END

*D_NET *5 0
*CONN
*P analog_io[14] O
*CAP
*RES
*END

*D_NET *6 0
*CONN
*P analog_io[15] O
*CAP
*RES
*END

*D_NET *7 0
*CONN
*P analog_io[16] O
*CAP
*RES
*END

*D_NET *8 0
*CONN
*P analog_io[17] O
*CAP
*RES
*END

*D_NET *9 0
*CONN
*P analog_io[18] O
*CAP
*RES
*END

*D_NET *10 0
*CONN
*P analog_io[19] O
*CAP
*RES
*END

*D_NET *11 0
*CONN
*P analog_io[1] O
*CAP
*RES
*END

*D_NET *12 0
*CONN
*P analog_io[20] O
*CAP
*RES
*END

*D_NET *13 0
*CONN
*P analog_io[21] O
*CAP
*RES
*END

*D_NET *14 0
*CONN
*P analog_io[22] O
*CAP
*RES
*END

*D_NET *15 0
*CONN
*P analog_io[23] O
*CAP
*RES
*END

*D_NET *16 0
*CONN
*P analog_io[24] O
*CAP
*RES
*END

*D_NET *17 0
*CONN
*P analog_io[25] O
*CAP
*RES
*END

*D_NET *18 0
*CONN
*P analog_io[26] O
*CAP
*RES
*END

*D_NET *19 0
*CONN
*P analog_io[27] O
*CAP
*RES
*END

*D_NET *20 0
*CONN
*P analog_io[28] O
*CAP
*RES
*END

*D_NET *21 0
*CONN
*P analog_io[29] O
*CAP
*RES
*END

*D_NET *22 0
*CONN
*P analog_io[2] O
*CAP
*RES
*END

*D_NET *23 0
*CONN
*P analog_io[30] O
*CAP
*RES
*END

*D_NET *24 0
*CONN
*P analog_io[3] O
*CAP
*RES
*END

*D_NET *25 0
*CONN
*P analog_io[4] O
*CAP
*RES
*END

*D_NET *26 0
*CONN
*P analog_io[5] O
*CAP
*RES
*END

*D_NET *27 0
*CONN
*P analog_io[6] O
*CAP
*RES
*END

*D_NET *28 0
*CONN
*P analog_io[7] O
*CAP
*RES
*END

*D_NET *29 0
*CONN
*P analog_io[8] O
*CAP
*RES
*END

*D_NET *30 0
*CONN
*P analog_io[9] O
*CAP
*RES
*END

*D_NET *31 0.14473616136396
*CONN
*P io_in[0] I
*I ANTENNA_mprj_io_in[0]:DIODE I
*I mprj:io_in[0] I
*CAP
0 ANTENNA_mprj_io_in[0]:DIODE 0.0002062676048
1 *31:2 0.08077251474476
2 *31:3 0.00034310305409999996
3 *31:5 2.3813806740000006e-05
4 *31:7 0.0014239089770999999
5 *31:9 0.06196655317646
6 *31:1 0
7 *31:11 0
*RES
0 ANTENNA_mprj_io_in[0]:DIODE *31:1 2.0535714285714284
1 *31:2 *31:1 268.4
2 *31:3 mprj:io_in[0] 0.21306666666666668
3 *31:3 *31:4 0.3243
4 *31:5 *31:6 0.15178571428571427
5 *31:7 *31:8 2.5583666666666667
6 *31:9 *31:10 710.205357142857
7 *31:2 *31:11 847.3035714285713
8 ANTENNA_mprj_io_in[0]:DIODE ANTENNA_mprj_io_in[0]:DIODE 0
9 *31:1 *31:1 0
10 *31:2 *31:2 0
11 *31:5 *31:4 0
12 ANTENNA_mprj_io_in[0]:DIODE *31:6 0
13 *31:9 *31:7 0
14 *31:11 *31:10 0
*END

*D_NET *32 0.14129874068832002
*CONN
*P io_in[10] I
*I ANTENNA_mprj_io_in[10]:DIODE I
*I mprj:io_in[10] I
*CAP
8 *32:1 0.0011874049358999998
9 ANTENNA_mprj_io_in[10]:DIODE 0.0002062676048
10 *32:3 0.0004908255476800001
11 mprj:io_in[10] 0.00020197143089999993
12 *32:6 5.029638022e-05
13 *32:4 0.08066463873824001
14 *32:9 0.05849733605058
15 *32:10 0
16 *32:8 0
*RES
15 *32:1 *32:2 2.125966666666667
16 ANTENNA_mprj_io_in[10]:DIODE *32:3 2.0535714285714284
17 *32:3 *32:4 390.3999999999999
18 mprj:io_in[10] *32:5 0.3243
19 *32:6 *32:7 0.45535714285714285
20 *32:4 *32:8 849.7678571428571
21 *32:9 *32:10 670.4374999999999
22 *32:10 *32:1 0
23 ANTENNA_mprj_io_in[10]:DIODE ANTENNA_mprj_io_in[10]:DIODE 0
24 *32:3 *32:3 0
25 *32:4 *32:4 0
26 *32:6 *32:5 0
27 ANTENNA_mprj_io_in[10]:DIODE *32:7 0
28 *32:8 *32:9 0
*END

*D_NET *33 0.15345496193560001
*CONN
*P io_in[11] I
*I ANTENNA_mprj_io_in[11]:DIODE I
*I mprj:io_in[11] I
*CAP
17 ANTENNA_mprj_io_in[11]:DIODE 8.932229792e-05
18 *33:1 0.00025233126384000004
19 mprj:io_in[11] 0.00020197143089999993
20 *33:4 5.029638022e-05
21 *33:2 0.0807036205072
22 *33:7 0.07089118043922
23 *33:9 0.0012662396163
24 *33:6 0
25 *33:8 0
*RES
29 ANTENNA_mprj_io_in[11]:DIODE *33:1 0.8214285714285714
30 *33:1 *33:2 195.19999999999996
31 mprj:io_in[11] *33:3 0.3243
32 *33:4 *33:5 0.45535714285714285
33 *33:2 *33:6 850.1785714285714
34 *33:7 *33:8 812.5089285714284
35 *33:9 *33:10 2.2701000000000002
36 ANTENNA_mprj_io_in[11]:DIODE ANTENNA_mprj_io_in[11]:DIODE 0
37 *33:1 *33:1 0
38 *33:2 *33:2 0
39 *33:4 *33:3 0
40 ANTENNA_mprj_io_in[11]:DIODE *33:5 0
41 *33:6 *33:7 0
42 *33:8 *33:9 0
*END

*D_NET *34 0.16553302229591998
*CONN
*P io_in[12] I
*I ANTENNA_mprj_io_in[12]:DIODE I
*I mprj:io_in[12] I
*CAP
26 mprj:io_in[12] 0.00020197143089999993
27 *34:2 2.3813806740000006e-05
28 ANTENNA_mprj_io_in[12]:DIODE 0.0807036205072
29 *34:5 0.0013450742967
30 *34:7 0.08325854225438001
31 *34:4 0
32 *34:8 0
*RES
43 mprj:io_in[12] *34:1 0.3243
44 *34:2 *34:3 0.15178571428571427
45 ANTENNA_mprj_io_in[12]:DIODE *34:4 850.1785714285714
46 *34:5 *34:6 2.4142333333333332
47 *34:7 *34:8 954.2767857142856
48 ANTENNA_mprj_io_in[12]:DIODE ANTENNA_mprj_io_in[12]:DIODE 0
49 *34:2 *34:1 0
50 ANTENNA_mprj_io_in[12]:DIODE *34:3 0
51 *34:4 *34:7 0
52 *34:8 *34:5 0
*END

*D_NET *35 0.17772429359300002
*CONN
*P io_in[13] I
*I ANTENNA_mprj_io_in[13]:DIODE I
*I mprj:io_in[13] I
*CAP
33 ANTENNA_mprj_io_in[13]:DIODE 8.932229792e-05
34 *35:1 0.00034176662028
35 mprj:io_in[13] 0.00020197143089999993
36 *35:4 5.029638022e-05
37 *35:2 0.08058667520032
38 *35:7 0.0013844916368999996
39 *35:9 0.09506977002646001
40 *35:6 0
41 *35:10 0
*RES
53 ANTENNA_mprj_io_in[13]:DIODE *35:1 0.8214285714285714
54 *35:1 *35:2 268.4
55 mprj:io_in[13] *35:3 0.3243
56 *35:4 *35:5 0.45535714285714285
57 *35:2 *35:6 848.9464285714286
58 *35:7 *35:8 2.4863
59 *35:9 *35:10 1089.669642857143
60 ANTENNA_mprj_io_in[13]:DIODE ANTENNA_mprj_io_in[13]:DIODE 0
61 *35:1 *35:1 0
62 *35:2 *35:2 0
63 *35:4 *35:3 0
64 ANTENNA_mprj_io_in[13]:DIODE *35:5 0
65 *35:6 *35:9 0
66 *35:10 *35:7 0
*END

*D_NET *36 0.19589995489636
*CONN
*P io_in[14] I
*I ANTENNA_mprj_io_in[14]:DIODE I
*I mprj:io_in[14] I
*CAP
42 mprj:io_in[14] 0.00020197143089999993
43 *36:2 5.029638022e-05
44 *36:4 0.00012830406688
45 *36:6 4.640188412000001e-05
46 *36:7 0.0016392507890200002
47 *36:9 4.640188412000001e-05
48 *36:11 0.0021953848321000003
49 *36:12 4.640188412000001e-05
50 *36:14 0.0038174998382800003
51 *36:16 8.932229792e-05
52 *36:13 5.029638022e-05
53 *36:19 0.0037843392409000003
54 *36:20 0.00274495561234
55 *36:22 8.223124824000001e-05
56 *36:24 0.00014284542059999998
57 *36:26 0.00269855372822
58 *36:28 0.00016728583584
59 *36:30 4.640188412000001e-05
60 *36:32 0.00010327233643999999
61 *36:34 4.017137184e-05
62 *36:35 5.034052896000001e-05
63 *36:37 0.00751838210158
64 *36:38 9.779659552000001e-05
65 *36:10 0.0037048915204600003
66 *36:41 7.021569086000002e-05
67 *36:43 2.3813806740000006e-05
68 *36:44 0.0030844508844400007
69 *36:46 0.00011932451264000001
70 *36:49 4.43020701e-05
71 *36:51 0.0027050025649599995
72 *36:53 0.0001231367505
73 *36:55 0.00011932451264000001
74 *36:58 0.003134791413400001
75 *36:61 0.0030844508844400007
76 ANTENNA_mprj_io_in[14]:DIODE 0.08062565696928001
77 *36:63 0.0010698754592
78 *36:65 0.0030546390989600004
79 *36:67 0.00110303605658
80 *36:70 0.0018775939503400002
81 *36:71 6.353766696000002e-05
82 *36:72 0.0042172987326799995
83 *36:31 0.0019305590973
84 *36:75 0.0010698754592
85 *36:77 0.0030546390989600004
86 *36:79 0.00110303605658
87 *36:82 0.0010698754592
88 *36:84 0.00264558858126
89 *36:85 0.00123612018468
90 *36:87 0.0026720711547400006
91 *36:88 4.640188412000001e-05
92 *36:90 0.0026588298680000006
93 *36:89 0.0010301515989800001
94 *36:93 0.00123612018468
95 *36:95 0.0026720711547400006
96 *36:96 4.640188412000001e-05
97 *36:97 0.00105663417246
98 *36:100 8.932229792e-05
99 *36:102 0.0026853124414800006
100 *36:104 0.00476419445966
101 *36:106 0.00424711051816
102 *36:107 5.034052896000001e-05
103 *36:109 2.3813806740000006e-05
104 *36:111 0.00104339288572
105 *36:113 0.0012063083992
106 *36:115 0.0026720711547400006
107 *36:116 4.640188412000001e-05
108 *36:118 0.00271179501496
109 *36:117 0.00105663417246
110 *36:121 0.0001822627608
111 *36:123 0.0037313740939400007
112 *36:125 0.00012830406688
113 *36:127 5.029638022e-05
114 *36:129 0.00105663417246
115 *36:130 0.00426763926164
116 *36:133 0.0011095993194200002
117 *36:135 0.00071303060128
118 *36:137 0.0031487574773800004
119 *36:139 0.0006749795133
120 *36:23 0.00269855372822
121 *36:5 0
122 *36:17 0
123 *36:27 0
124 *36:29 0
125 *36:33 0
126 *36:36 0
127 *36:39 0
128 *36:45 0
129 *36:47 0
130 *36:48 0
131 *36:105 0
132 *36:56 0
133 *36:57 0
134 *36:59 0
135 *36:60 0
136 *36:62 0
137 *36:66 0
138 *36:73 0
139 *36:78 0
140 *36:86 0
141 *36:94 0
142 *36:101 0
143 *36:108 0
144 *36:114 0
145 *36:128 0
146 *36:126 0
147 *36:131 0
148 *36:132 0
149 *36:136 0
150 *36:138 0
*RES
67 mprj:io_in[14] *36:1 0.3243
68 *36:2 *36:3 0.45535714285714285
69 *36:4 *36:5 1.232142857142857
70 *36:6 *36:7 0.4107142857142857
71 *36:7 *36:8 18.669642857142854
72 *36:9 *36:10 0.4107142857142857
73 *36:11 *36:9 25.044642857142854
74 *36:12 *36:13 0.4107142857142857
75 *36:14 *36:15 0.4107142857142857
76 *36:16 *36:17 0.8214285714285714
77 *36:13 *36:18 0.45535714285714285
78 *36:19 *36:15 43.25892857142857
79 *36:20 *36:21 0.4107142857142857
80 *36:14 *36:21 43.107142857142854
81 *36:22 *36:23 0.8214285714285714
82 *36:24 *36:25 0.2162
83 *36:26 *36:27 30.812499999999996
84 *36:28 *36:29 1.6428571428571428
85 *36:30 *36:31 0.4107142857142857
86 *36:32 *36:33 73.19999999999999
87 *36:34 *36:35 0.30357142857142855
88 *36:35 *36:36 0.4107142857142857
89 *36:37 *36:6 86.06249999999999
90 *36:38 *36:39 0.9107142857142857
91 *36:10 *36:40 42.348214285714285
92 *36:41 *36:42 0.4107142857142857
93 *36:43 *36:42 0.15178571428571427
94 *36:44 *36:45 2513.2
95 *36:46 *36:47 0.6071428571428571
96 *36:46 *36:48 0.4107142857142857
97 *36:49 *36:50 0.036033333333333334
98 *36:51 *36:52 5.539733333333333
99 *36:53 *36:54 0.18016666666666664
100 *36:55 *36:56 0.6071428571428571
101 *36:55 *36:57 0.4107142857142857
102 *36:58 *36:59 2513.2
103 *36:58 *36:60 0.4107142857142857
104 *36:61 *36:62 2513.2
105 ANTENNA_mprj_io_in[14]:DIODE *36:61 849.3571428571428
106 *36:63 *36:64 12.14285714285714
107 *36:65 *36:66 2488.7999999999997
108 *36:67 *36:68 11.991071428571427
109 *36:67 *36:69 0.4107142857142857
110 *36:70 *36:30 21.40178571428571
111 *36:71 *36:69 0.6071428571428571
112 *36:72 *36:73 3440.399999999999
113 *36:31 *36:74 22.00892857142857
114 *36:75 *36:76 12.14285714285714
115 *36:77 *36:78 2488.7999999999997
116 *36:79 *36:80 11.991071428571427
117 *36:79 *36:81 0.4107142857142857
118 *36:82 *36:83 12.14285714285714
119 *36:84 *36:81 30.20535714285714
120 *36:85 *36:86 1000.3999999999999
121 *36:87 *36:88 30.50892857142857
122 *36:88 *36:89 0.4107142857142857
123 *36:90 *36:91 30.357142857142854
124 *36:89 *36:92 11.687499999999998
125 *36:93 *36:94 1000.3999999999999
126 *36:95 *36:96 30.50892857142857
127 *36:96 *36:97 0.4107142857142857
128 *36:41 *36:98 0.15178571428571427
129 *36:97 *36:99 11.991071428571427
130 *36:100 *36:101 0.8214285714285714
131 *36:102 *36:103 30.660714285714285
132 *36:104 *36:105 54.49107142857142
133 *36:106 *36:107 3464.7999999999997
134 *36:107 *36:108 0.4107142857142857
135 *36:109 *36:110 0.15178571428571427
136 *36:111 *36:112 11.839285714285714
137 *36:113 *36:114 975.9999999999999
138 *36:115 *36:116 30.50892857142857
139 *36:116 *36:117 0.4107142857142857
140 *36:118 *36:119 30.96428571428571
141 *36:117 *36:120 11.991071428571427
142 *36:121 *36:122 0.28826666666666667
143 *36:123 *36:124 42.651785714285715
144 *36:125 *36:126 1.232142857142857
145 *36:127 *36:128 0.45535714285714285
146 *36:129 *36:12 11.991071428571427
147 *36:130 *36:131 3440.399999999999
148 *36:130 *36:132 0.4107142857142857
149 *36:133 *36:22 12.598214285714285
150 *36:20 *36:134 30.812499999999996
151 *36:135 *36:136 7.3928571428571415
152 *36:137 *36:138 35.973214285714285
153 *36:139 *36:140 1.1891
154 *36:23 *36:141 30.812499999999996
155 ANTENNA_mprj_io_in[14]:DIODE ANTENNA_mprj_io_in[14]:DIODE 0
156 *36:2 *36:1 0
157 ANTENNA_mprj_io_in[14]:DIODE *36:3 0
158 *36:5 *36:8 0
159 *36:4 *36:11 0
160 *36:16 *36:18 0
161 *36:17 *36:19 0
162 *36:71 *36:25 0
163 *36:27 *36:24 0
164 *36:28 *36:26 0
165 *36:29 *36:64 0
166 *36:32 *36:32 0
167 *36:32 *36:76 0
168 *36:33 *36:33 0
169 *36:33 *36:84 0
170 *36:34 *36:83 0
171 *36:36 *36:37 0
172 *36:38 *36:40 0
173 *36:39 *36:90 0
174 *36:45 *36:45 0
175 *36:45 *36:43 0
176 *36:44 *36:44 0
177 *36:44 *36:92 0
178 *36:47 *36:102 0
179 *36:48 *36:99 0
180 *36:109 *36:50 0
181 *36:49 *36:52 0
182 *36:53 *36:51 0
183 *36:105 *36:54 0
184 *36:56 *36:118 0
185 *36:57 *36:112 0
186 *36:59 *36:59 0
187 *36:59 *36:127 0
188 *36:58 *36:58 0
189 *36:60 *36:120 0
190 *36:61 *36:61 0
191 *36:62 *36:62 0
192 *36:62 *36:63 0
193 *36:66 *36:66 0
194 *36:66 *36:70 0
195 *36:65 *36:65 0
196 *36:65 *36:68 0
197 *36:72 *36:72 0
198 *36:72 *36:74 0
199 *36:73 *36:73 0
200 *36:73 *36:75 0
201 *36:78 *36:78 0
202 *36:78 *36:82 0
203 *36:77 *36:77 0
204 *36:77 *36:80 0
205 *36:85 *36:85 0
206 *36:85 *36:91 0
207 *36:86 *36:86 0
208 *36:86 *36:87 0
209 *36:93 *36:93 0
210 *36:93 *36:98 0
211 *36:94 *36:94 0
212 *36:94 *36:95 0
213 *36:100 *36:103 0
214 *36:101 *36:104 0
215 *36:106 *36:106 0
216 *36:106 *36:110 0
217 *36:107 *36:107 0
218 *36:108 *36:111 0
219 *36:113 *36:113 0
220 *36:113 *36:119 0
221 *36:114 *36:114 0
222 *36:114 *36:115 0
223 *36:128 *36:121 0
224 *36:123 *36:122 0
225 *36:126 *36:124 0
226 *36:125 *36:129 0
227 *36:131 *36:131 0
228 *36:131 *36:133 0
229 *36:130 *36:130 0
230 *36:132 *36:134 0
231 *36:135 *36:141 0
232 *36:136 *36:137 0
233 *36:138 *36:139 0
*END

*D_NET *37 0.19361295054202
*CONN
*P io_in[15] I
*I ANTENNA_mprj_io_in[15]:DIODE I
*I mprj:io_in[15] I
*CAP
151 mprj:io_in[15] 0.00012318083782
152 *37:2 0.00116256446638
153 *37:4 8.932229792e-05
154 *37:6 8.932229792e-05
155 *37:8 8.932229792e-05
156 *37:10 0.00588314056972
157 *37:12 8.223124824000001e-05
158 *37:14 0.00010604505498000002
159 *37:17 7.021569086000002e-05
160 *37:20 9.669826434000002e-05
161 *37:23 0.0038174998382800003
162 *37:25 4.640188412000001e-05
163 *37:26 0.0037181328072000003
164 *37:27 8.223124824000001e-05
165 *37:29 0.0027807849764600002
166 *37:31 8.223124824000001e-05
167 *37:33 8.932229792e-05
168 *37:35 2.3813806740000006e-05
169 *37:37 0.07384282917024
170 *37:39 6.898398368e-05
171 *37:40 5.034052896000001e-05
172 *37:42 0.0037313740939400007
173 *37:43 0.004876802777480001
174 *37:13 0.00271179501496
175 *37:45 0.0029950155280000002
176 *37:47 0.00110303605658
177 *37:50 0.0011360818929000002
178 *37:51 0.00269855372822
179 *37:52 0.0030546390989600004
180 *37:54 0.00110303605658
181 *37:57 0.0010831167459400002
182 *37:58 0.00269855372822
183 *37:59 0.00010342808039999998
184 *37:61 0.0037578566674200003
185 *37:63 0.00012830406688
186 *37:65 0.0010698754592
187 *37:66 0.0026853124414800006
188 *37:68 4.640188412000001e-05
189 *37:70 0.00025169920912000005
190 *37:72 0.00011932451264000001
191 *37:75 6.898398368e-05
192 *37:76 5.034052896000001e-05
193 *37:28 0.0037843392409000003
194 *37:79 0.0031737731823600008
195 *37:82 8.932229792e-05
196 *37:84 4.640188412000001e-05
197 *37:85 0.00296337946302
198 *37:87 0.0030546390989600004
199 *37:89 0.00110303605658
200 *37:92 0.0010698754592
201 *37:94 0.00028863954154000006
202 *37:95 0.00012830406688
203 *37:97 0.0037578566674200003
204 *37:99 0.00010342808039999998
205 *37:69 0.00256614086082
206 *37:102 0.00105663417246
207 *37:104 0.00012830406688
208 *37:106 0.0037578566674200003
209 *37:108 0.00010342808039999998
210 *37:110 0.0026853124414800006
211 *37:112 0.0011228406061600002
212 *37:113 0.004237827476160001
213 *37:116 0.0010698754592
214 *37:118 0.0026853124414800006
215 *37:120 4.43020701e-05
216 *37:122 0.0036337322835999996
217 *37:124 8.371941029999999e-05
218 *37:126 5.029638022e-05
219 *37:128 5.029638022e-05
220 *37:130 0.004237827476160001
221 *37:133 0.0011360818929000002
222 *37:134 0.0037710979541600003
223 *37:136 5.034052896000001e-05
224 *37:139 0.0048436421801000005
225 *37:140 0.004237827476160001
226 *37:143 0.0019305590973
227 *37:32 0.00269855372822
228 ANTENNA_mprj_io_in[15]:DIODE 0
229 *37:5 0
230 *37:7 0
231 *37:9 0
232 *37:34 0
233 *37:38 0
234 *37:41 0
235 *37:46 0
236 *37:53 0
237 *37:62 0
238 *37:64 0
239 *37:73 0
240 *37:74 0
241 *37:77 0
242 *37:80 0
243 *37:81 0
244 *37:83 0
245 *37:88 0
246 *37:96 0
247 *37:98 0
248 *37:105 0
249 *37:107 0
250 *37:114 0
251 *37:115 0
252 *37:127 0
253 *37:131 0
254 *37:132 0
255 *37:137 0
256 *37:141 0
257 *37:142 0
*RES
234 mprj:io_in[15] *37:1 0.7589285714285713
235 mprj:io_in[15] *37:2 0.4107142857142857
236 *37:2 *37:3 13.20535714285714
237 *37:4 *37:5 0.8214285714285714
238 *37:6 *37:7 0.8214285714285714
239 *37:8 *37:9 0.8214285714285714
240 *37:10 *37:11 0.4107142857142857
241 *37:12 *37:13 0.8214285714285714
242 *37:14 *37:15 0.8214285714285714
243 *37:14 *37:16 0.15178571428571427
244 *37:17 *37:18 0.4107142857142857
245 *37:17 *37:19 0.15178571428571427
246 *37:20 *37:21 0.4107142857142857
247 *37:20 *37:22 0.45535714285714285
248 *37:23 *37:24 0.4107142857142857
249 *37:25 *37:26 0.4107142857142857
250 *37:26 *37:27 42.5
251 *37:27 *37:28 0.8214285714285714
252 *37:29 *37:30 0.8214285714285714
253 *37:31 *37:32 0.8214285714285714
254 *37:33 *37:34 0.8214285714285714
255 *37:35 *37:11 0.15178571428571427
256 *37:10 *37:36 66.78571428571428
257 *37:37 *37:38 777.8928571428571
258 *37:39 *37:40 0.6071428571428571
259 *37:40 *37:41 0.4107142857142857
260 *37:42 *37:12 42.651785714285715
261 *37:43 *37:44 0.4107142857142857
262 *37:43 *37:15 55.25
263 *37:13 *37:44 30.96428571428571
264 *37:45 *37:46 2439.9999999999995
265 *37:47 *37:48 11.991071428571427
266 *37:47 *37:49 0.4107142857142857
267 *37:50 *37:18 12.901785714285712
268 *37:51 *37:49 30.812499999999996
269 *37:52 *37:53 2488.7999999999997
270 *37:54 *37:55 11.991071428571427
271 *37:54 *37:56 0.4107142857142857
272 *37:57 *37:21 12.294642857142856
273 *37:58 *37:56 30.812499999999996
274 *37:59 *37:60 0.14413333333333334
275 *37:61 *37:62 42.95535714285714
276 *37:63 *37:64 1.232142857142857
277 *37:65 *37:24 12.14285714285714
278 *37:66 *37:67 30.660714285714285
279 *37:68 *37:69 0.4107142857142857
280 *37:70 *37:68 1.8214285714285714
281 *37:70 *37:71 0.8214285714285714
282 *37:23 *37:71 43.107142857142854
283 *37:72 *37:73 0.6071428571428571
284 *37:72 *37:74 0.4107142857142857